[General]
network = Net

*.peer[*].hashPower = uniform(0.1, 1.0)
*.peer[*].interarrivalTime = 600  # 1 minutes on average
*.peer[*].isAdversary = false
*.peer[*].floodingRate = 1  # 1 invalid block per second on average

*.peer[0].isAdversary = true
*.peer[1].isAdversary = true
*.peer[2].isAdversary = true

sim-time-limit = 86400s 

output-vector-file = ${resultdir}/${configname}-${runnumber}.vec
output-scalar-file = ${resultdir}/${configname}-${runnumber}.sca